<?xml version="1.0" encoding="UTF-8"?>

<!-- generated on 2026-04-10 20:12:51.844919 by Eclipse SUMO randomTrips.py v1_26_0+0000-fa7df22d7f1
<configuration>
    <net-file value="kolkata.net.xml"/>
    <route-file value="kolkata.rou.xml"/>
    <period value="3.0"/>
</configuration>
-->

<!-- generated on 2026-04-10T20:12:51.116069+05:30 by Eclipse SUMO duarouter 1.26.0
<duarouterConfiguration xmlns:xsi="http://www.w3.org/2001/XMLSchema-instance" xsi:noNamespaceSchemaLocation="http://sumo.dlr.de/xsd/duarouterConfiguration.xsd">

    <input>
        <net-file value="kolkata.net.xml"/>
        <route-files value="trips.trips.xml"/>
    </input>

    <output>
        <output-file value="kolkata.rou.xml"/>
        <alternatives-output value="NUL"/>
    </output>

    <time>
        <begin value="0"/>
        <end value="3600.0"/>
    </time>

    <report>
        <no-warnings value="true"/>
        <ignore-errors value="true"/>
        <no-step-log value="true"/>
    </report>

</duarouterConfiguration>
-->

<routes xmlns:xsi="http://www.w3.org/2001/XMLSchema-instance" xsi:noNamespaceSchemaLocation="http://sumo.dlr.de/xsd/routes_file.xsd">
    <vehicle id="0" depart="0.00">
        <route edges="116232199#0 116232199#1 -116232201#0 1342413760 1342413757 52151690#0 52151690#1 52151690#2 1452306070 204154759 204165725 1452306071 361033194#0 361033194#1 361033194#2 52151691 1126633517 213852713 1032036239#0 1032036239#1 1032036239#2 -191009033#3 -191009033#2 191009026 -113752054#17 -113752054#16"/>
    </vehicle>
    <vehicle id="1" depart="3.00">
        <route edges="-159802682#1 -159802679 158412881#1 158412881#2 -158412884#3 1019044736#0 1019044736#1 1019044736#2 -159802684#1 -689133318 -157916981#2 157916977#0 -158412877 -157916974#0"/>
    </vehicle>
    <vehicle id="2" depart="6.00">
        <route edges="190272868 189931926#2 189932004#6 189932004#7 218553611#1 218553611#2 218553611#3 1341533173#1 153584769 189924432 1126633517 217872402#0 1324038319 1031992820 1324038320 1031992819#0 1031992819#1 1031992819#2 1031992819#3 1031992819#4 1342413761#0 1342413761#1 1342413761#2 1342413762 52151680#0 52151680#1 52151680#2 52151680#3 52151680#4 52151680#5 52151680#6 52151680#7 -115771922 115771909#8 113752057#2 -115655795 -115655778#2"/>
    </vehicle>
    <vehicle id="3" depart="9.00">
        <route edges="-739714364#0 -189921783#1 189921794#0 189921794#1 189921794#2 189921794#3 189921794#4 189921794#5 189921794#6 189921794#7 -204165728#4 -204165728#3 -113752054#9"/>
    </vehicle>
    <vehicle id="4" depart="12.00">
        <route edges="-157927461#0 1190598162 -1190598162 157927461#0 157927461#1 157927461#2 157927461#3 -157916975#1 -159803037 154887817#1 154887817#2 1126855627 153744481 1126855626 1126855625 1126855624 1126855623 1126855622 154887807#0 154887807#1 154887807#2 154887807#3 154887807#4 154887807#5 350552519 158712046#0 158712046#1 158712046#2 158712046#3 158712046#4 1127247740 1148137538 1148150433#0 1148150433#1 1148150433#2 1148150433#3 260320288 217872402#0 113752054#1 113752054#3 113752054#5 113752054#6 113752054#7 113752054#8 113752054#9 -204165728#1 -204165728#0 -204165727 -113752057#33 -113752057#32 -113752057#31 -113752057#29 113752057#29"/>
    </vehicle>
    <vehicle id="5" depart="15.00">
        <route edges="-113752054#17 -113752054#16 -113752054#15 -113752054#14 -113752054#12 -113752054#11 -113752054#9 -113752054#8 -113752054#7 -113752054#6 -113752054#5 -113752054#3 -113752054#1 1324038319 1031992820 1324038320 1031992819#0 1031992819#1 1031992819#2 1031992819#3 1031992819#4 1342413761#0 1342413761#1 1342413761#2 1342413762 52151680#0 52151680#1 52151680#2 1032031706#12 1032031706#13 -116232208 116232201#3 116232201#4 116065387#3 116065387#4 116065387#6 116065387#7 1226439301#0 1226439301#1 1226439301#2 -1226439301#2 -1226439301#1"/>
    </vehicle>
    <vehicle id="6" depart="18.00">
        <route edges="1178023859 189924441#0 189924441#1 189924441#2 189924441#3 217872402#0 1324038319 1031992820 1324038320 1031992819#0 1031992819#1 1031992819#2 1031992819#3 1031992819#4 1342413761#0 1342413761#1 1342413761#2 1342413762 52151680#0 52151680#1 52151680#2 52151680#3 52151680#4 52151680#5 52151680#6 52151680#7 52151680#8 52151680#9 113752035#0 113752035#1 -113751991#3 -113751991#2 -113751991#1 -115655825#2 -115655825#1 -115655825#0 -115655762#0 115655762#0"/>
    </vehicle>
    <vehicle id="7" depart="21.00">
        <route edges="-157927461#4 -157916975#1 -159803037 154887817#1 154887817#2 1126855627 153744481 1126855626 1126855625 1126855624 1126855623 1126855622 154887807#0 154887807#1 154887807#2 154887807#3 154887807#4 154887807#5 350552519 158712046#0 158712046#1 158712046#2 158712046#3 158712046#4 1127247740 1148137538 1148150433#0 1148150433#1 1148150433#2 1148150433#3 260320288 217872402#0 1324038319 1031992820 1324038320 1031992819#0 1031992819#1 1031992819#2 1031992819#3 1031992819#4 1342413761#0 1342413761#1 1342413761#2 1342413762 52151680#0 52151680#1 52151680#2 113752030#1 113752030#2 113752030#3 113752030#4 113752030#5 -115879817#1 115879817#1"/>
    </vehicle>
    <vehicle id="8" depart="24.00">
        <route edges="159370051#3 -159370042 -159370055#3 -159370041 154991879#1 1126855626 1126855625 1126855624 1126855623 1126855622 154887807#0 154887807#1 154887807#2 154887807#3 154887807#4 154887807#5 350552519 158712046#0 158712046#1 158712046#2 158712046#3 158712046#4 153580922"/>
    </vehicle>
    <vehicle id="9" depart="27.00">
        <route edges="-189931985#0 -1433971950#1 -1433971950#0 -189931927#1 -189931927#0 -190276970#0 1341533173#1 153584769 189924432 1126633517 217872402#0 1324038319 1031992820 1324038320 1031992819#0 1031992819#1 1031992819#2 1031992819#3 1031992819#4 1342413761#0 1342413761#1 1342413761#2 1342413762 52151680#0 52151680#1 52151680#2 52151680#3 52151680#4 52151680#5 52151680#6 52151680#7 52151680#8 772140208#1 -116193599#1 -116193599#0 -116038036#6 -116038050"/>
    </vehicle>
    <vehicle id="10" depart="30.00">
        <route edges="26774681#0 26774681#1 26774681#2 -153698922#1 -153698922#0 191031771 1127247740 1148137538 1148150433#0 1148150433#1 1148150433#2 1148150433#3 260320288 153584770#1 52151691 -189924436#4 -189924436#3"/>
    </vehicle>
    <vehicle id="11" depart="33.00">
        <route edges="-115771907#0 115771914#1 115771914#2 115771909#4 115771909#5 115771909#6 115771909#7 115771909#8 -115655819"/>
    </vehicle>
    <vehicle id="12" depart="36.00">
        <route edges="189921785#0 189921794#7 204165728#5 1196027699#5 260320288 217872402#0 1324038319 1031992820 1324038320 1031992819#0 1031992819#1 1031992819#2 1031992819#3 1031992819#4 1342413761#0 1342413761#1 1342413761#2 1342413762 52151680#0 52151680#1 52151680#2 52151680#3 52151680#4 52151680#5 52151680#6 52151680#7 52151680#8 772140208#1 -116193599#1 116064838#0 116064817#2 116064817#3 116038028#10"/>
    </vehicle>
    <vehicle id="13" depart="39.00">
        <route edges="159370055#0 159370055#1 159370055#2 -159370041 154991879#1 1126855626 1126855625 1126855624 1126855623 1126855622 1126855628 1126855627 154991878#0 154991878#1 154991878#2"/>
    </vehicle>
    <vehicle id="14" depart="42.00">
        <route edges="115655768#1 115655768#2 -113752064#3 -113752064#2 -113752064#0 -115654046#2 -115654046#1 -113752010#11 -113752010#9 -113752010#8 -113752010#6 -113752010#4 -113752010#3 -113752010#1 -113752010#0 113752057#17 113752057#18 113752057#19 113752057#21 113752057#22 113752057#23 113752057#24 113752057#25 113752057#26 113752057#27 113752057#29 113752057#31 113752057#32 113752057#33 204165727 204165728#0 204165728#1 204165728#3 204165728#4 204165728#5 1196027699#5 260320288 153584770#1 115880793#0 115880793#1 115880793#2 115880793#3 361033195#0 361033195#1 361033195#2 361033195#3 -361033193 153698922#0 153698922#1 -26774681#2 -26774681#1 192447881 162339459#1 162339459#3 162339459#5 162339459#6 162339459#8 -47693484#1 47693484#1"/>
    </vehicle>
    <vehicle id="15" depart="45.00">
        <route edges="-190292792#3 -190292792#1 -190292792#0 -52151971#3 1196027699#1 1196027699#2 1196027699#3 -204165728#5 -204165728#4 -204165728#3 -204165728#1 -204165728#0 -204165727 -113752057#33 -113752057#32 -113752057#31 -113752057#29 -113752057#27 -113752057#26 -113752057#25 -113752057#24 -113752057#23 -113752057#22 -113752057#21 -113752057#19 -113752057#18 -113752057#17 -113752057#15 -113752057#14 -113752057#13 -113752057#12 -113752057#10 -113752057#8 -113752057#7 -113752057#5 115655778#0 115655778#1 115655778#2"/>
    </vehicle>
    <vehicle id="16" depart="48.00">
        <route edges="159841042#0 -159841031 -159841043#0 -158410389#1 -158410389#0 -158410384#4 -158410384#3 -158410384#2 -158410384#1 -158410384#0 158712046#3 158712046#4 1127247740 1148137538 1148150433#0 1148150433#1 1148150433#2 1148150433#3 260320288 217872402#0 1324038319 1031992820 1324038320 1031992819#0 1031992819#1 1031992819#2 1031992819#3 1031992819#4 1342413761#0 1342413761#1 1342413761#2 1342413762 52151680#0 52151680#1 52151680#2 52151680#3 52151680#4 52151680#5 52151680#6 52151680#7 52151680#8 772140208#1 -116193599#1 -116193599#0 -116038034#3 -116038034#2 -116038034#1 -116038034#0 116038057#2 116038057#3"/>
    </vehicle>
    <vehicle id="17" depart="51.00">
        <route edges="189924432 1126633517 217872402#0 113752054#1 113752054#3 113752054#5 113752054#6 113752054#7 113752054#8 113752054#9 -204165728#1 -204165728#0 -204165727 -113752057#33 -113752057#32 -113752057#31 -113752057#29 -113752057#27 -113752057#26 -113752057#25 -113752057#24 -113752057#23 -113752057#22 -113752057#21 -113752057#19 -113752057#18 -113752057#17 -113752057#15 -113752057#14 -113752057#13 -113752057#12 -113752057#10 -113752057#8 -115773499#2 -115773499#1 -115773499#0 -115773492#0 115773489#0 115773489#1"/>
    </vehicle>
    <vehicle id="18" depart="54.00">
        <route edges="-158140413#3 -158140413#2 -158140407#0 154887820#2 153582732#2 349753997 1126855630 154887821#0 154887821#1 154887821#2 154887805#0 159802683#0 159802683#1 159802683#3 159802683#4 -159802683#4"/>
    </vehicle>
    <vehicle id="19" depart="57.00">
        <route edges="-115655778#0 -113752057#3 -113752057#2 -113752057#0 1292620888 1032031706#0 1032031706#1 1032031706#2 1032031706#3 1032031706#4 1032031706#5 1032031706#6 1032031706#7 1032031706#8 1032031706#9 1032031706#10 1032031706#11 1032031706#12 1032031706#13 1342413759 1342413760 1342413757 52151690#0 52151690#1 52151690#2 1452306070 204154759 204165725 1452306071 361033194#0 361033194#1 361033194#2 115880793#0 115880793#1 115880793#2 115880793#3 361033195#0 361033195#1 361033195#2 361033195#3 -361033193 153698922#0 153698922#1 -26774681#2 -26774681#1 192447881 162339459#1 162339459#3 158412870#0 158412870#1 -158424334#0 158140409#2 -158140391#1 -158140391#0"/>
    </vehicle>
    <vehicle id="20" depart="60.00">
        <route edges="-115771916#2 115771916#2 -115771914#1 -115771914#0 1032031706#5 1032031706#6 1032031706#7 1032031706#8 1032031706#9 1032031706#10 1032031706#11 1032031706#12 1032031706#13 1342413759 1342413760 1342413757 52151690#0 52151690#1 52151690#2 1452306070 204154759 204165725 1452306071 361033194#0 361033194#1 361033194#2 115880793#0 115880793#1 115880793#2 115880793#3 361033195#0 361033195#1 361033195#2 361033195#3 -361033193 153698922#0 153698922#1 -26774681#2 -26774681#1 192447881 162339459#1 154887820#0 154887820#1 154887820#2 153582732#2 349753997 1126855630 154887821#0 154887821#1 154887821#2 154887805#0 154887805#1 154887805#2 154887817#0 154887817#1 154887817#2 1126855627 153744481 1126855626 154887801#0 154887801#1 154887801#2 207405246#0 -159370037 159370051#3 -159370051#3"/>
    </vehicle>
    <vehicle id="21" depart="63.00">
        <route edges="116196520 -116065387#4 -116065387#3 -116065387#1 -116065387#0 1032031706#11 1032031706#12 1032031706#13 1342413759 1342413760 1342413757 52151690#0 52151690#1 52151690#2 1452306070 204154759 204165725 1452306071 361033194#0 361033194#1 361033194#2 1388181075 189924440 1307640748 -218553611#3 -218553611#2 1410037425 -190276954"/>
    </vehicle>
    <vehicle id="22" depart="66.00">
        <route edges="-190277024 190277007#0 190277007#2 190276977#5 190276977#6 190276977#7 -190276970#6 -190276970#5 -190276970#4 -190276970#3 -190276970#2 -190276970#1 -190276970#0 1341533173#1 153584769 189924432 1126633517 217872402#0 1324038319 1031992820 1324038320 1031992819#0 1031992819#1 1031992819#2 1031992819#3 1031992819#4 1342413761#0 1342413761#1 1342413761#2 1342413762 52151680#0 52151680#1 52151680#2 113752030#1 113752030#2 -1309793511#4 -1309793511#3"/>
    </vehicle>
    <vehicle id="23" depart="69.00">
        <route edges="-159370051#4 -159370042 -159370055#3 -159370041 154991879#1 1126855626 1126855625 1126855624 1126855623 1126855622 154887807#0 154887807#1 154887807#2 154887807#3 154887807#4 154887807#5 350552519 158712046#0 158712046#1 158712046#2 158712046#3 158712046#4 1127247740 1148137538 1148150433#0 1148150433#1 1148150433#2 1148150433#3 260320288 153584770#1 115880793#0 115880793#1 115880793#2 115880793#3 361033195#0 191031770"/>
    </vehicle>
    <vehicle id="24" depart="72.00">
        <route edges="1178023855#2 -189924438#2 -189924438#1 -189924438#0 189924441#3 217872402#0 1324038319 1031992820 1324038320 1031992819#0 1031992819#1 1031992819#2 1031992819#3 1031992819#4 1342413761#0 1342413761#1 1342413761#2 1342413762 52151680#0 52151680#1 52151680#2 52151680#3 52151680#4 52151680#5 52151680#6 52151680#7 52151680#8 772140208#1 -116193599#1 -116193599#0 -116038034#3 -116038034#2 -116038034#1 -116038034#0 116038057#2 -116038022#1 116038035"/>
    </vehicle>
    <vehicle id="25" depart="75.00">
        <route edges="-116232201#0 1342413760 1342413757 52151690#0 52151690#1 52151690#2 1452306070 204154759 204165725 1452306071 361033194#0 361033194#1 361033194#2 115880793#0 115880793#1 115880793#2 115880793#3 361033195#0 361033195#1 361033195#2 361033195#3 -361033193 153698922#0 153698922#1 -26774681#2 -26774681#1 192447881 162339459#1 154887820#0 154887820#1 154887820#2 153582732#2 349753997 1126855630 154887821#0 154887821#1 154887821#2 154887805#0 154887805#1 154887805#2 154887817#0 154887817#1 154887817#2 1126855627 154991878#0 154991878#1"/>
    </vehicle>
    <vehicle id="26" depart="78.00">
        <route edges="-116065399#3 -116065399#2 -116065374 1032031706#8 1032031706#9 1032031706#10 1032031706#11 1032031706#12 1032031706#13 1342413759 1342413760 1342413757 52151690#0 52151690#1 52151690#2 1452306070 204154759 204165725 1452306071 361033194#0 361033194#1 361033194#2 1388181075 189924440 1307640748 -218553611#3 -218553611#2 1410037425 189931954#0 -190276990#5"/>
    </vehicle>
    <vehicle id="27" depart="81.00">
        <route edges="52151971#5 52151971#6 52151971#7 -52151971#7 -52151971#6 -52151971#5 -52151971#3 1196027699#1 1196027699#2 1196027699#3 1196027699#5 260320288 217872402#0 1324038319 1031992820 1324038320 1031992819#0 1031992819#1 1031992819#2 1031992819#3 1031992819#4 1342413761#0 1342413761#1 1342413761#2 1342413762 52151680#0 52151680#1 52151680#2 52151680#3 52151680#4 52151680#5 52151680#6 52151680#7 52151680#8 772140208#1 1307641452 1032031706#2 1032031706#3 -116064832#1 -116064832#0 -116064826#1 116064827 116193612#1"/>
    </vehicle>
    <vehicle id="28" depart="84.00">
        <route edges="189921777 -189921794#0 -189921783#0 153580898#0 153580898#1 153580898#2 153580898#3 349753995 1148137537 361033191#0 361033191#1 361033191#2 361033191#3 153582732#0 153582732#1 153582732#2 349753997 1126855630 1126855629 350552519 158712046#0 158410391#0 158410391#1 158410391#2 -158410386#4 159838764 158410387#4"/>
    </vehicle>
    <vehicle id="29" depart="87.00">
        <route edges="-158140414#3 -158140407#1 -158140407#0 154887820#2 153582732#2 349753997 1126855630 1126855629 350552519 158712046#0 158712046#1 158712046#2 158712046#3 158712046#4 1127247740 1148137538 1148150433#0 1148150433#1 1148150433#2 1148150433#3 260320288 217872402#0 113752054#1 113752054#3 113752054#5 113752054#6 113752054#7 113752054#8 113752054#9 -204165728#1 -204165728#0 -204165727 -113752057#33 -113752057#32 -113752057#31 -113752057#29 -113752057#27 -113752057#26 -113752057#25 -113752057#24 -113752057#23 -113752057#22 -113752057#21 -113752057#19 -113752057#18 -113752057#17 -113752057#15 -113752057#14"/>
    </vehicle>
    <vehicle id="30" depart="90.00">
        <route edges="-189923084#3 -189923084#2 -189923084#1 -189923084#0 1146853620#3 361033195#0 361033195#1 361033195#2 361033195#3 -361033193 153698922#0 153698922#1 -26774681#2 -26774681#1 192447881 162339459#1 154887820#0 154887820#1 154887820#2 153582732#2 349753997 1126855630 154887821#0 157920901#0 157920901#1 158412872#0 158412872#1 158412872#2 -158412872#2"/>
    </vehicle>
    <vehicle id="31" depart="93.00">
        <route edges="-157916974#0 157916981#4 157916975#0 -159803037 154887817#1 154887817#2 1126855627 153744481 1126855626 1126855625 1126855624 1126855623 1126855622 154887807#0 154887807#1 154887807#2 154887807#3 154887807#4 154887807#5 350552519 158712046#0 158712046#1 158712046#2 158712046#3 158712046#4 1127247740 1148137538 1148150433#0 1148150433#1 1148150433#2 1148150433#3 260320288 217872402#0 113752054#1 113752054#3 113752054#5 113752054#6 113752054#7 113752054#8 113752054#9 -204165728#1 -204165728#0 -204165727 -113752057#33 113752057#33 204165727"/>
    </vehicle>
    <vehicle id="32" depart="96.00">
        <route edges="189931926#0 189931926#1 189931926#2 189932004#6 189932004#7 218553611#1 218553611#2 218553611#3 1341533173#1 153584769 189924432 1126633517 153584770#1 115880793#0 115880793#1 115880793#2 115880793#3 361033195#0 361033195#1 361033195#2 361033195#3 -361033193 153698922#0 153698922#1 -26774681#2 -26774681#1 192447881 162339459#1 162339459#3 162339459#5 162339459#6 162339459#8 -162339459#8"/>
    </vehicle>
    <vehicle id="33" depart="99.00">
        <route edges="1201617860 153686900 153586741 1388164396 1126843681#0 1388164398 -190276970#5 -190276970#4 -190276970#3 -190276970#2 -190276970#1 -190276970#0 1341533173#1 153584769 189924432 1126633517 213852713 1032036239#0 1032036239#1 190292780#0 190292780#1 190292780#2 -190292792#1"/>
    </vehicle>
    <vehicle id="34" depart="102.00">
        <route edges="190277021#0 190277021#2 190277021#3 -1433971950#1 -1433971950#0 -189931927#1 -189931927#0 -190276970#0 1341533173#1 153584769 189924432 1126633517 217872402#0 113752054#1 113752054#3 113752054#5 113752054#6 113752054#7 113752054#8 113752054#9 -204165728#1 -204165728#0 -204165727 -113752057#33 -113752057#32 -113752057#31 -113752057#29 -113752057#27 -113752057#26 -113752057#25 -113752057#24 -113752057#23 -113752057#22 -113752057#21 -113752057#19 -113752057#18 -113752057#17 113752010#0 113752010#1 113752010#3 113752010#4 113752010#6 113752010#8 113752010#9 113752010#11 115654046#1 115654046#2 115654046#3 115654046#5 115654046#6 115654046#7 115654046#8 115654046#9 115654046#10 115654046#11 115654046#12 115654046#13 -113752026#1 -1065785660 1065785660"/>
    </vehicle>
    <vehicle id="35" depart="105.00">
        <route edges="-159370048#0 159370055#1 159370044 159370051#2 159370037 207405246#1 207405246#2 207405246#3 207405246#4 -158141282#1 -158141282#0"/>
    </vehicle>
    <vehicle id="36" depart="108.00">
        <route edges="115771914#2 -115771914#2 -115771914#1 -115771914#0 1032031706#5 1032031706#6 1032031706#7 1032031706#8 1032031706#9 1032031706#10 1032031706#11 1032031706#12 1032031706#13 1342413759 1342413760 1342413757 52151690#0 52151690#1 52151690#2 1452306070 204154759 204165725 1452306071 361033194#0 361033194#1 361033194#2 115880793#0 115880793#1 115880793#2 115880793#3 361033195#0 361033195#1 361033195#2 361033195#3 -361033193 153698922#0 153698922#1 -26774681#2 -26774681#1 192447881 162339459#1 154887820#0 154887820#1 154887820#2 153582732#2 349753997 1126855630 1126855629 350552519 158712046#0 158410391#0 -158410391#0"/>
    </vehicle>
    <vehicle id="37" depart="111.00">
        <route edges="115879829#1 -115879826#1 -115879840#1 -115879840#0 113752057#31 113752057#32 113752057#33 204165727 204165728#0 204165728#1 204165728#3 204165728#4 204165728#5 1196027699#5 260320288 153584770#1 1388181075 189924440 1307640748 190276970#0 190276970#1"/>
    </vehicle>
    <vehicle id="38" depart="114.00">
        <route edges="-218553611#2 218553611#2 218553611#3 1341533173#1 153584769 189924432 1126633517 213852713 153580898#0 153580898#1 153580898#2 153580898#3 349753995 1148137537 361033191#0 361033191#1 361033191#2 361033191#3 153582732#0 153582732#1 153582732#2 158712053#0 158712053#1 158712053#2 158712053#3 158712053#4 158712053#5 1127549417 1127549416 153582730 349753996 350552503#0 154880926#0 154880926#1 156421333 156421320#0 -156421320#0"/>
    </vehicle>
    <vehicle id="39" depart="117.00">
        <route edges="771853433 771853432 -190292792#4 -190292792#3 -190292792#1 -190292792#0 -52151971#3 1196027699#1 1196027699#2 1196027699#3 -204165728#5 -204165728#4 -204165728#3 -204165728#1 -204165728#0 -204165727 -113752057#33 -113752057#32 -113752057#31 -113752057#29 -113752057#27 -113752057#26 -113752057#25 -113752057#24 -113752057#23 -113752057#22 -113752057#21 -113752057#19 -113752057#18 -113752057#17 113752010#0 113752010#1 113752010#3 113752010#4 113752010#6 113752010#8 113752010#9 113752010#11 115654046#1 115654046#2 115654046#3 115654046#5 115654046#6 115654046#7 115654046#8 115654046#9 113752060#0 113752060#1 113752060#2"/>
    </vehicle>
    <vehicle id="40" depart="120.00">
        <route edges="-115655825#1 -115655825#0 115655762#1 -115655804#4 -115655804#3 -115655804#2 -1065785670#1 -1065785670#0 -115655809#0 113752057#14 113752057#15 113752057#17 113752057#18 113752057#19 113752057#21 113752057#22 113752057#23 113752057#24 113752057#25 113752057#26 113752057#27 113752057#29 113752057#31 113752057#32 -113752065#4 -113752065#3 -113752065#2 -113752065#1"/>
    </vehicle>
    <vehicle id="41" depart="123.00">
        <route edges="-115879793 1342413761#2 1342413762 52151680#0 52151680#1 52151680#2 52151680#3 52151680#4 52151680#5 52151680#6 52151680#7 52151680#8 772140208#1 1307641452 1032031706#2 1032031706#3 -116064832#1 -116064832#0 -116064826#1 116064826#1 116064832#0"/>
    </vehicle>
    <vehicle id="42" depart="126.00">
        <route edges="158712046#3 158712046#4 1127247740 1148137538 349753995 1148137537 361033191#0 361033191#1 26774680 -162339437#1 -162339437#0 -162339447#2 -162339447#1 -162339447#0 -26774681#2"/>
    </vehicle>
    <vehicle id="43" depart="129.00">
        <route edges="-115610249#12 -115610249#11 -115610249#10 -115610249#9 -115610249#8 -115610249#6 -115610249#5 -115610249#4 -115610249#3 -115610249#2 115610210#0 115610210#1 1226442270 -1226441937 113752065#0 113752065#1 113752065#2 113752065#3 113752065#4 113752057#33 204165727 204165728#0 204165728#1 204165728#3 204165728#4 204165728#5 1196027699#5 260320288 153584770#1 1388181075 189924440 1307640748 190276970#0 190276970#1 190276970#2 190276970#3 1310002578 190276997#0 -190276997#0"/>
    </vehicle>
    <vehicle id="44" depart="132.00">
        <route edges="764070232#0 764070232#1 1388164397#1 153575411 153586739 217873237#0 217873237#1 153686901 1201617858 153684058 -52151971#8 -52151971#7 -52151971#6 -52151971#5 -52151971#3 1196027699#1 1196027699#2 1196027699#3 -204165728#5 -204165728#4 -204165728#3 -204165728#1 -204165728#0 -204165727 -113752057#33 -113752065#4 -113752065#3 -113752065#2 -113752065#1 -113752065#0 1226441937 -1226442270 -115610210#1 -115610210#0 115610249#2 115610249#3 115610249#4 115610249#5 115610249#6 115610249#8 115610249#9 115610249#10 115610249#11 -115610202 1065785672 -1065785672 115610202"/>
    </vehicle>
    <vehicle id="45" depart="135.00">
        <route edges="361033195#2 361033195#3 1148137536 1148137538 1148150433#0 1148150433#1 1148150433#2 1148150433#3 260320288 217872402#0 1324038319 1031992820 1324038320 1031992819#0 1031992819#1 1031992819#2 1031992819#3 1031992819#4 1342413761#0 1342413761#1 1342413761#2 1342413762 52151680#0 52151680#1 52151680#2 1032031706#12 1032031706#13 1342413759 1342413760 1342413757 52151690#0 52151690#1 52151690#2 1452306070 204154759 204165725 1452306071 -189923084#6 -189923084#5 -189923084#4 189923084#4"/>
    </vehicle>
    <vehicle id="46" depart="138.00">
        <route edges="-113751995#8 -113751995#7 -113751995#6 -113751995#5 -113751995#3 -113751995#2 -113751995#1 -113751995#0 113752065#2 113752065#3 113752065#4 113752057#33 204165727 204165728#0 204165728#1 204165728#3 204165728#4 204165728#5 1196027699#5 153580898#0 153580898#1 153580898#2 153580898#3 349753995 1148137537 361033191#0 361033191#1 361033191#2 361033191#3 153582732#0 153582732#1 153582732#2 349753997 1126855630 154887821#0 154887821#1"/>
    </vehicle>
    <vehicle id="47" depart="141.00">
        <route edges="1342413761#0 1342413761#1 1342413761#2 1342413762 52151680#0 52151680#1 52151680#2 113752030#1 113752030#2 113752030#3 113752030#4 113752030#5 113752030#6 113752030#7 113752030#8 113752057#21 113752057#22 113752057#23 113752057#24 113752057#25 113752057#26 113752057#27 113752057#29 113752057#31 113752057#32 -113752065#4 -113752065#3 -113752065#2 -113752065#1 -113752065#0 1226441937 -1226442270 -115610210#1 -115610210#0 115610249#2 115610249#3 115610249#4 115610249#5"/>
    </vehicle>
    <vehicle id="48" depart="144.00">
        <route edges="-159370051#3 -159370051#2 -159370044 159370055#2 -159370041 154991879#1 1126855626 1126855625 1126855624 1126855623 1126855622 154887807#0 154887807#1 154887807#2 154887807#3 154887807#4 154887807#5 350552519 158712046#0 158712046#1 158712046#2 158712046#3 158712046#4 1127247740 1148137538 1148150433#0 1148150433#1 1148150433#2 1148150433#3 260320288 217872402#0 1324038319 1031992820 1324038320 1031992819#0 1031992819#1 1031992819#2 1031992819#3 1031992819#4 1342413761#0 1342413761#1 1342413761#2 1342413762 52151680#0 52151680#1 52151680#2 1032031706#12 1032031706#13 -116232208 116232201#3 116232201#4 116065387#3 116065387#4 116065387#6 116065387#7 -116231665#1 116231665#1"/>
    </vehicle>
    <vehicle id="49" depart="147.00">
        <route edges="-115879802#0 -1218445630 1218445630 115879802#0 115879802#1 1031992819#3 1031992819#4 1342413761#0 1342413761#1 1342413761#2 1342413762 52151680#0 52151680#1 52151680#2 1032031706#12 1032031706#13 1342413759 1342413760 1342413757 52151690#0 52151690#1 52151690#2 1452306070 204154759 204165725 1452306071 361033194#0 361033194#1 361033194#2 115880793#0 115880793#1 115880793#2 115880793#3 361033195#0 361033195#1 361033195#2 361033195#3 -361033193 153698922#0 153698922#1 -26774681#2 -26774681#1 192447881 162339459#1 154887820#0 154887820#1 154887820#2 153582732#2 158712053#0 158712053#1 158712053#2 158712053#3 158712053#4 158712053#5 1127549417 1127549416 153582730 158712058#0 47693486#0 47696291#3 -47693487#3"/>
    </vehicle>
    <vehicle id="50" depart="150.00">
        <route edges="189931922#1 -1410037425 218553611#2 218553611#3 1341533173#1 153584769 189924432 1126633517 213852713 153580898#0 153580898#1 153580898#2 153580898#3 349753995 1148137537 361033191#0 361033191#1 361033191#2 361033191#3 153582732#0 153582732#1 153582732#2 349753997 1126855630 1126855629 350552519 158712046#0 158410391#0 158410391#1 158410391#2 -158410391#2"/>
    </vehicle>
    <vehicle id="51" depart="153.00">
        <route edges="113752072#16 -113752010#11 -113752010#9 -113752010#8 -113752010#6 -113752010#4 -115655809#1 -115655809#0 -113752057#13 -113752057#12 -113752057#10 -113752057#8 -113752057#7 -113752057#5 -113752057#3 -113752057#2 -113752057#0 1292620888 1032031706#0 1032031706#1 1032031706#2 1032031706#3 1032031706#4 1032031706#5 1032031706#6 1032031706#7 1032031706#8 1032031706#9 1032031706#10 116065387#0 116065387#1 116065387#3 116065387#4 -116196520"/>
    </vehicle>
    <vehicle id="52" depart="156.00">
        <route edges="190277007#2 190276977#5 190276977#6 190276977#7 -190276970#6 -190276970#5 -190276970#4 -190276970#3 -190276970#2 -190276970#1 -190276970#0 1341533173#1 153584769 189924432 1126633517 -189924441#3 189924438#0 189924438#1"/>
    </vehicle>
    <vehicle id="53" depart="159.00">
        <route edges="-162339447#1 -162339447#0 -153698922#1 -153698922#0 191031771 1127247740 1148137538 1148150433#0 1148150433#1 1148150433#2 1148150433#3 260320288 217872402#0 1324038319 1031992820 1324038320 1031992819#0 1031992819#1 1031992819#2 1031992819#3 1031992819#4 1342413761#0 1342413761#1 1342413761#2 1342413762 52151680#0 52151680#1 52151680#2 52151680#3 52151680#4 52151680#5 52151680#6 52151680#7 52151680#8 772140208#1 -116193599#1 -116193599#0 116193599#0"/>
    </vehicle>
    <vehicle id="54" depart="162.00">
        <route edges="116038042#0 116038042#1 -116038042#1 -116038042#0 116038044#0 -116038044#0"/>
    </vehicle>
    <vehicle id="55" depart="165.00">
        <route edges="158410384#4 -158410384#4 -158410384#3 -158410384#2 -158410384#1 -158410384#0 158712046#3 158712046#4 1127247740 1148137538 1148150433#0 1148150433#1 1148150433#2 1148150433#3 260320288 217872402#0 113752054#1 113752054#3 113752054#5 113752054#6 113752054#7 113752054#8 113752054#9 -204165728#1 -204165728#0 -204165727 -113752057#33 -113752057#32 -113752057#31 -113752057#29 -113752057#27 -113752057#26 -113752057#25 -113752057#24 -113752057#23 -113752057#22 -113752057#21 -113752057#19 -113752057#18 -113752057#17 113752010#0 113752010#1 113752010#3 113752010#4 113752010#6 113752010#8 113752010#9 113752010#11 115654046#1 115654046#2 115654046#3 115654046#5 115654046#6 115654046#7 115654046#8 115654046#9 115654046#10"/>
    </vehicle>
    <vehicle id="56" depart="168.00">