<?xml version="1.0" encoding="UTF-8"?>

<!-- generated on 2026-04-10 20:12:50.428588 by Eclipse SUMO randomTrips.py v1_26_0+0000-fa7df22d7f1
<configuration>
    <net-file value="kolkata.net.xml"/>
    <route-file value="kolkata.rou.xml"/>
    <period value="3.0"/>
</configuration>
-->

<routes xmlns:xsi="http://www.w3.org/2001/XMLSchema-instance" xsi:noNamespaceSchemaLocation="http://sumo.dlr.de/xsd/routes_file.xsd">
    <trip id="0" depart="0.00" from="116232199#0" to="-113752054#16"/>
    <trip id="1" depart="3.00" from="-159802682#1" to="-157916974#0"/>
    <trip id="2" depart="6.00" from="190272868" to="-115655778#2"/>
    <trip id="3" depart="9.00" from="-739714364#0" to="-113752054#9"/>
    <trip id="4" depart="12.00" from="-157927461#0" to="113752057#29"/>
    <trip id="5" depart="15.00" from="-113752054#17" to="-1226439301#1"/>
    <trip id="6" depart="18.00" from="1178023859" to="115655762#0"/>
    <trip id="7" depart="21.00" from="-157927461#4" to="115879817#1"/>
    <trip id="8" depart="24.00" from="159370051#3" to="153580922"/>
    <trip id="9" depart="27.00" from="-189931985#0" to="-116038050"/>
    <trip id="10" depart="30.00" from="26774681#0" to="-189924436#3"/>
    <trip id="11" depart="33.00" from="-115771907#0" to="-115655819"/>
    <trip id="12" depart="36.00" from="189921785#0" to="116038028#10"/>
    <trip id="13" depart="39.00" from="159370055#0" to="154991878#2"/>
    <trip id="14" depart="42.00" from="115655768#1" to="47693484#1"/>
    <trip id="15" depart="45.00" from="-190292792#3" to="115655778#2"/>
    <trip id="16" depart="48.00" from="159841042#0" to="116038057#3"/>
    <trip id="17" depart="51.00" from="189924432" to="115773489#1"/>
    <trip id="18" depart="54.00" from="-158140413#3" to="-159802683#4"/>
    <trip id="19" depart="57.00" from="-115655778#0" to="-158140391#0"/>
    <trip id="20" depart="60.00" from="-115771916#2" to="-159370051#3"/>
    <trip id="21" depart="63.00" from="116196520" to="-190276954"/>
    <trip id="22" depart="66.00" from="-190277024" to="-1309793511#3"/>
    <trip id="23" depart="69.00" from="-159370051#4" to="191031770"/>
    <trip id="24" depart="72.00" from="1178023855#2" to="116038035"/>
    <trip id="25" depart="75.00" from="-116232201#0" to="154991878#1"/>
    <trip id="26" depart="78.00" from="-116065399#3" to="-190276990#5"/>
    <trip id="27" depart="81.00" from="52151971#5" to="116193612#1"/>
    <trip id="28" depart="84.00" from="189921777" to="158410387#4"/>
    <trip id="29" depart="87.00" from="-158140414#3" to="-113752057#14"/>
    <trip id="30" depart="90.00" from="-189923084#3" to="-158412872#2"/>
    <trip id="31" depart="93.00" from="-157916974#0" to="204165727"/>
    <trip id="32" depart="96.00" from="189931926#0" to="-162339459#8"/>
    <trip id="33" depart="99.00" from="1201617860" to="-190292792#1"/>
    <trip id="34" depart="102.00" from="190277021#0" to="1065785660"/>
    <trip id="35" depart="105.00" from="-159370048#0" to="-158141282#0"/>
    <trip id="36" depart="108.00" from="115771914#2" to="-158410391#0"/>
    <trip id="37" depart="111.00" from="115879829#1" to="190276970#1"/>
    <trip id="38" depart="114.00" from="-218553611#2" to="-156421320#0"/>
    <trip id="39" depart="117.00" from="771853433" to="113752060#2"/>
    <trip id="40" depart="120.00" from="-115655825#1" to="-113752065#1"/>
    <trip id="41" depart="123.00" from="-115879793" to="116064832#0"/>
    <trip id="42" depart="126.00" from="158712046#3" to="-26774681#2"/>
    <trip id="43" depart="129.00" from="-115610249#12" to="-190276997#0"/>
    <trip id="44" depart="132.00" from="764070232#0" to="115610202"/>
    <trip id="45" depart="135.00" from="361033195#2" to="189923084#4"/>
    <trip id="46" depart="138.00" from="-113751995#8" to="154887821#1"/>
    <trip id="47" depart="141.00" from="1342413761#0" to="115610249#5"/>
    <trip id="48" depart="144.00" from="-159370051#3" to="116231665#1"/>
    <trip id="49" depart="147.00" from="-115879802#0" to="-47693487#3"/>
    <trip id="50" depart="150.00" from="189931922#1" to="-158410391#2"/>
    <trip id="51" depart="153.00" from="113752072#16" to="-116196520"/>
    <trip id="52" depart="156.00" from="190277007#2" to="189924438#1"/>
    <trip id="53" depart="159.00" from="-162339447#1" to="116193599#0"/>
    <trip id="54" depart="162.00" from="116038042#0" to="-116038044#0"/>
    <trip id="55" depart="165.00" from="158410384#4" to="115654046#10"/>
    <trip id="56" depart="168.00" from="158412870#0" to="115610215"/>
    <trip id="57" depart="171.00" from="-1065785660" to="-189921794#5"/>
    <trip id="58" depart="174.00" from="-113752030#3" to="190383367#3"/>
    <trip id="59" depart="177.00" from="189931947#0" to="159841038#0"/>
    <trip id="60" depart="180.00" from="-189921783#2" to="-115610215"/>
    <trip id="61" depart="183.00" from="189931927#0" to="207405246#2"/>
    <trip id="62" depart="186.00" from="-115655796#1" to="113752030#6"/>
    <trip id="63" depart="189.00" from="-115654046#13" to="158140416#4"/>
    <trip id="64" depart="192.00" from="158410386#0" to="-115879826#3"/>
    <trip id="65" depart="195.00" from="113752054#3" to="115655777#1"/>
    <trip id="66" depart="198.00" from="-159370048#0" to="189924441#1"/>
    <trip id="67" depart="201.00" from="-739714364#2" to="-1310002578"/>
    <trip id="68" depart="204.00" from="115655777#3" to="154991879#0"/>
    <trip id="69" depart="207.00" from="-1410037425" to="-162339450#2"/>
    <trip id="70" depart="210.00" from="739714364#1" to="1173665891"/>
    <trip id="71" depart="213.00" from="1032036239#0" to="113752072#10"/>
    <trip id="72" depart="216.00" from="-115879835#0" to="-157916975#1"/>
    <trip id="73" depart="219.00" from="-189931954#0" to="115879815#3"/>
    <trip id="74" depart="222.00" from="-158140415#1" to="-156421327#0"/>
    <trip id="75" depart="225.00" from="-115654046#5" to="116064840"/>
    <trip id="76" depart="228.00" from="-158140414#2" to="190276977#3"/>
    <trip id="77" depart="231.00" from="189923093#4" to="-115652858"/>
    <trip id="78" depart="234.00" from="-158144863" to="1226442270"/>
    <trip id="79" depart="237.00" from="-157916981#2" to="-115879835#4"/>
    <trip id="80" depart="240.00" from="191009026" to="115771914#2"/>
    <trip id="81" depart="243.00" from="113752054#15" to="158412870#1"/>
    <trip id="82" depart="246.00" from="159370055#1" to="-1178023855#1"/>
    <trip id="83" depart="249.00" from="-115771909#6" to="-47693484#1"/>
    <trip id="84" depart="252.00" from="52151680#3" to="-115655825#1"/>
    <trip id="85" depart="255.00" from="-26774683#1" to="-189924441#1"/>
    <trip id="86" depart="258.00" from="189924432" to="-158141284#4"/>
    <trip id="87" depart="261.00" from="-1226439301#7" to="1032031705"/>
    <trip id="88" depart="264.00" from="-739714364#0" to="-159370051#4"/>
    <trip id="89" depart="267.00" from="-158410389#0" to="190292790#1"/>
    <trip id="90" depart="270.00" from="1092383453#1" to="189923084#6"/>
    <trip id="91" depart="273.00" from="115655815#0" to="-113752072#11"/>
    <trip id="92" depart="276.00" from="804183083" to="159841042#3"/>
    <trip id="93" depart="279.00" from="361033194#1" to="190292792#6"/>
    <trip id="94" depart="282.00" from="189921786#0" to="-116064833"/>
    <trip id="95" depart="285.00" from="113752057#27" to="-1433971950#1"/>
    <trip id="96" depart="288.00" from="-26774681#0" to="-115610216#0"/>
    <trip id="97" depart="291.00" from="-190292792#4" to="52151680#9"/>
    <trip id="98" depart="294.00" from="-159370048#1" to="158412868#1"/>
    <trip id="99" depart="297.00" from="26774681#0" to="739714365"/>
    <trip id="100" depart="300.00" from="115771909#1" to="154887817#2"/>
    <trip id="101" depart="303.00" from="-116064835#0" to="-159841030"/>
    <trip id="102" depart="306.00" from="361033194#0" to="115773496#0"/>
    <trip id="103" depart="309.00" from="115655780#2" to="158140391#1"/>
    <trip id="104" depart="312.00" from="-1154399320" to="115879802#1"/>
    <trip id="105" depart="315.00" from="113752072#8" to="189921783#3"/>
    <trip id="106" depart="318.00" from="-116065372#0" to="349753995"/>
    <trip id="107" depart="321.00" from="-115655778#1" to="-116232201#2"/>
    <trip id="108" depart="324.00" from="116038012#0" to="1292620888"/>
    <trip id="109" depart="327.00" from="-158141282#1" to="-115879802#1"/>
    <trip id="110" depart="330.00" from="190272859#0" to="-158140416#5"/>
    <trip id="111" depart="333.00" from="116038010" to="116064817#0"/>
    <trip id="112" depart="336.00" from="-52151971#6" to="115879802#0"/>
    <trip id="113" depart="339.00" from="115610250" to="191009026"/>
    <trip id="114" depart="342.00" from="1309793511#1" to="-159841040#1"/>
    <trip id="115" depart="345.00" from="-189923084#5" to="158140407#1"/>
    <trip id="116" depart="348.00" from="771854650" to="771853432"/>
    <trip id="117" depart="351.00" from="-115655762#0" to="-1410037425"/>
    <trip id="118" depart="354.00" from="-159370048#1" to="190383397#5"/>
    <trip id="119" depart="357.00" from="189931954#1" to="189931922#1"/>
    <trip id="120" depart="360.00" from="-190277021#3" to="-116064817#0"/>
    <trip id="121" depart="363.00" from="116038046#0" to="52151691"/>
    <trip id="122" depart="366.00" from="159802683#4" to="-159841038#1"/>
    <trip id="123" depart="369.00" from="1226442270" to="192446058#0"/>
    <trip id="124" depart="372.00" from="-116038034#3" to="-115773496#1"/>
    <trip id="125" depart="375.00" from="-115773496#0" to="115655780#1"/>
    <trip id="126" depart="378.00" from="-159802680#1" to="116038028#5"/>
    <trip id="127" depart="381.00" from="154887840#0" to="-1226444743"/>
    <trip id="128" depart="384.00" from="116193599#0" to="-158410391#3"/>
    <trip id="129" depart="387.00" from="113752057#5" to="190276977#3"/>
    <trip id="130" depart="390.00" from="189921783#1" to="-115655804#0"/>
    <trip id="131" depart="393.00" from="-739714365" to="-159370051#0"/>
    <trip id="132" depart="396.00" from="-1111977551" to="158410385#2"/>
    <trip id="133" depart="399.00" from="116231665#0" to="-158410389#2"/>
    <trip id="134" depart="402.00" from="157927461#0" to="115655778#1"/>
    <trip id="135" depart="405.00" from="1019044736#1" to="-113751995#3"/>
    <trip id="136" depart="408.00" from="-115655764#0" to="189931947#3"/>
    <trip id="137" depart="411.00" from="190276977#4" to="115655762#1"/>
    <trip id="138" depart="414.00" from="162339437#1" to="115879794#0"/>
    <trip id="139" depart="417.00" from="-116064818#2" to="-115879826#1"/>
    <trip id="140" depart="420.00" from="-189921785#1" to="190276970#12"/>
    <trip id="141" depart="423.00" from="158712066#0" to="189923084#4"/>
    <trip id="142" depart="426.00" from="190276970#5" to="-1309793513"/>
    <trip id="143" depart="429.00" from="-158410388" to="-115771909#3"/>
    <trip id="144" depart="432.00" from="158412872#2" to="189931954#1"/>
    <trip id="145" depart="435.00" from="-361033193" to="116064817#3"/>
    <trip id="146" depart="438.00" from="-116064835#0" to="190383367#4"/>
    <trip id="147" depart="441.00" from="189924436#2" to="47693487#1"/>
    <trip id="148" depart="444.00" from="159802679" to="189931927#1"/>
    <trip id="149" depart="447.00" from="-113752054#12" to="156421333"/>
    <trip id="150" depart="450.00" from="-189931918#3" to="190383379"/>
    <trip id="151" depart="453.00" from="159370048#1" to="189923093#4"/>
    <trip id="152" depart="456.00" from="159802678#1" to="-158412872#0"/>
    <trip id="153" depart="459.00" from="158424329#0" to="-115771916#1"/>
    <trip id="154" depart="462.00" from="189924683#0" to="189921796#1"/>
    <trip id="155" depart="465.00" from="-158140395#0" to="159802680#0"/>
    <trip id="156" depart="468.00" from="113752010#3" to="-160554108"/>
    <trip id="157" depart="471.00" from="158712053#5" to="-157916981#3"/>
    <trip id="158" depart="474.00" from="-113752054#1" to="-1178293388"/>
    <trip id="159" depart="477.00" from="-189924442" to="189923093#4"/>
    <trip id="160" depart="480.00" from="361033192#3" to="-159370055#0"/>
    <trip id="161" depart="483.00" from="116232200#3" to="-190383367#1"/>
    <trip id="162" depart="486.00" from="47696291#2" to="115610249#4"/>
    <trip id="163" depart="489.00" from="191033291" to="-115773496#1"/>
    <trip id="164" depart="492.00" from="361033195#1" to="-116196520"/>
    <trip id="165" depart="495.00" from="339956364#1" to="-158410391#6"/>
    <trip id="166" depart="498.00" from="-115773499#1" to="-47693487#3"/>
    <trip id="167" depart="501.00" from="116038036#6" to="113752064#2"/>
    <trip id="168" depart="504.00" from="-190383397#0" to="115773485"/>
    <trip id="169" depart="507.00" from="-158410391#6" to="154880930#0"/>
    <trip id="170" depart="510.00" from="-1065785670#1" to="190292792#5"/>
    <trip id="171" depart="513.00" from="115655777#1" to="154887820#1"/>
    <trip id="172" depart="516.00" from="157927461#1" to="1226444743"/>
    <trip id="173" depart="519.00" from="-190276990#4" to="-115640771"/>
    <trip id="174" depart="522.00" from="1226443320#0" to="-189923093#1"/>
    <trip id="175" depart="525.00" from="-189923084#0" to="189921778#0"/>
    <trip id="176" depart="528.00" from="-189921785#3" to="-191033287"/>
    <trip id="177" depart="531.00" from="-26774683#0" to="-159838774#0"/>
    <trip id="178" depart="534.00" from="-115880828#1" to="-218553611#3"/>
    <trip id="179" depart="537.00" from="190276977#0" to="116038044#0"/>
    <trip id="180" depart="540.00" from="-162339459#3" to="115655768#0"/>
    <trip id="181" depart="543.00" from="-1019044748" to="-159802682#2"/>
    <trip id="182" depart="546.00" from="1031992819#3" to="115773496#2"/>
    <trip id="183" depart="549.00" from="1201617858" to="1126843681#2"/>
    <trip id="184" depart="552.00" from="1065785671#0" to="-1433971950#1"/>
    <trip id="185" depart="555.00" from="113752054#16" to="190276970#5"/>
    <trip id="186" depart="558.00" from="158712066#0" to="-116065374"/>
    <trip id="187" depart="561.00" from="-115655795" to="113752065#3"/>
    <trip id="188" depart="564.00" from="116065400#1" to="-189924436#0"/>
    <trip id="189" depart="567.00" from="159802684#1" to="158140407#0"/>
    <trip id="190" depart="570.00" from="1309793511#3" to="-157916975#1"/>
    <trip id="191" depart="573.00" from="-1309793511#4" to="-113752054#15"/>
    <trip id="192" depart="576.00" from="-158410386#1" to="113751995#5"/>
    <trip id="193" depart="579.00" from="189921794#0" to="-115654046#1"/>
    <trip id="194" depart="582.00" from="-47693487#2" to="116064835#2"/>
    <trip id="195" depart="585.00" from="-1240685273#0" to="153580898#0"/>
    <trip id="196" depart="588.00" from="113752064#7" to="-158140415#5"/>
    <trip id="197" depart="591.00" from="158140414#0" to="158410384#8"/>
    <trip id="198" depart="594.00" from="-115773494" to="-339956364#0"/>
    <trip id="199" depart="597.00" from="-1174933517" to="26774684#2"/>
    <trip id="200" depart="600.00" from="115610249#0" to="-113752072#10"/>
    <trip id="201" depart="603.00" from="-158410387#4" to="189921778#2"/>
    <trip id="202" depart="606.00" from="113751995#2" to="158712058#1"/>
    <trip id="203" depart="609.00" from="1240711528#1" to="52151971#5"/>
    <trip id="204" depart="612.00" from="190272863#0" to="116038038#2"/>
    <trip id="205" depart="615.00" from="154887840#4" to="113752057#27"/>
    <trip id="206" depart="618.00" from="159841042#2" to="115655765"/>
    <trip id="207" depart="621.00" from="190276970#13" to="157920901#2"/>
    <trip id="208" depart="624.00" from="113752054#19" to="-158410387#2"/>
    <trip id="209" depart="627.00" from="-158410387#0" to="116065399#3"/>
    <trip id="210" depart="630.00" from="158410386#0" to="113752072#7"/>
    <trip id="211" depart="633.00" from="116065374" to="-159370046#0"/>
    <trip id="212" depart="636.00" from="-115655768#2" to="-159802681#3"/>
    <trip id="213" depart="639.00" from="-159802680#0" to="-189921785#0"/>
    <trip id="214" depart="642.00" from="115655778#0" to="-116038012#1"/>
    <trip id="215" depart="645.00" from="-158140415#5" to="153575939"/>
    <trip id="216" depart="648.00" from="154887801#0" to="-115610249#1"/>
    <trip id="217" depart="651.00" from="-47690206#3" to="115654046#5"/>
    <trip id="218" depart="654.00" from="-47693489" to="-1240711528#1"/>
    <trip id="219" depart="657.00" from="-52151971#8" to="190276977#1"/>
    <trip id="220" depart="660.00" from="115879829#0" to="153580896#0"/>
    <trip id="221" depart="663.00" from="-190276970#0" to="158140413#0"/>
    <trip id="222" depart="666.00" from="189921796#0" to="260320285"/>
    <trip id="223" depart="669.00" from="-52151971#5" to="157927461#4"/>
    <trip id="224" depart="672.00" from="115655804#0" to="116038028#1"/>
    <trip id="225" depart="675.00" from="-157927461#4" to="-156421320#0"/>
    <trip id="226" depart="678.00" from="1032031706#5" to="-113752054#8"/>
    <trip id="227" depart="681.00" from="-189931947#0" to="1309793511#3"/>
    <trip id="228" depart="684.00" from="-26774686" to="-116064827"/>
    <trip id="229" depart="687.00" from="113752030#6" to="-115879826#1"/>
    <trip id="230" depart="690.00" from="116064827" to="-113752054#20"/>
    <trip id="231" depart="693.00" from="-192448754" to="115771907#0"/>
    <trip id="232" depart="696.00" from="-113752054#19" to="116232199#1"/>
    <trip id="233" depart="699.00" from="-116038036#3" to="1119574679#0"/>
    <trip id="234" depart="702.00" from="-113752065#4" to="-190276990#4"/>
    <trip id="235" depart="705.00" from="-157916974#1" to="-189923084#2"/>
    <trip id="236" depart="708.00" from="158410384#1" to="-190276990#4"/>
    <trip id="237" depart="711.00" from="158140414#3" to="159841038#0"/>
    <trip id="238" depart="714.00" from="-158410391#1" to="-115655768#0"/>
    <trip id="239" depart="717.00" from="-113752030#2" to="115654046#10"/>
    <trip id="240" depart="720.00" from="995157453" to="-189931947#0"/>
    <trip id="241" depart="723.00" from="1178293388" to="158410391#5"/>
    <trip id="242" depart="726.00" from="1196027699#0" to="158140413#1"/>
    <trip id="243" depart="729.00" from="207405246#1" to="-1226439301#2"/>
    <trip id="244" depart="732.00" from="-113752030#5" to="-116038042#1"/>
    <trip id="245" depart="735.00" from="-115880799#4" to="1226443320#0"/>
    <trip id="246" depart="738.00" from="115771923#1" to="-156421311#0"/>
    <trip id="247" depart="741.00" from="153938555" to="158410384#1"/>
    <trip id="248" depart="744.00" from="-116232198" to="116038034#0"/>
    <trip id="249" depart="747.00" from="158140409#0" to="-115773494"/>
    <trip id="250" depart="750.00" from="159803035" to="361033192#4"/>
    <trip id="251" depart="753.00" from="-115773499#0" to="-113752054#17"/>
    <trip id="252" depart="756.00" from="26774681#2" to="-190292792#5"/>
    <trip id="253" depart="759.00" from="154887820#1" to="-115654046#5"/>
    <trip id="254" depart="762.00" from="153580896#0" to="116064827"/>
    <trip id="255" depart="765.00" from="-115771924#0" to="158410386#2"/>
    <trip id="256" depart="768.00" from="189921794#1" to="115880799#4"/>
    <trip id="257" depart="771.00" from="-115879835#1" to="52151680#6"/>
    <trip id="258" depart="774.00" from="158412878#0" to="-189931922#1"/>
    <trip id="259" depart="777.00" from="1031992819#0" to="-190276970#6"/>
    <trip id="260" depart="780.00" from="1148137536" to="-189924445#0"/>
    <trip id="261" depart="783.00" from="189921786#1" to="159802683#4"/>
    <trip id="262" depart="786.00" from="-115773492#0" to="349753995"/>
    <trip id="263" depart="789.00" from="116196520" to="159838774#1"/>
    <trip id="264" depart="792.00" from="154887801#1" to="-47696291#1"/>
    <trip id="265" depart="795.00" from="157916974#0" to="361033193"/>
    <trip id="266" depart="798.00" from="-159802677" to="159370048#1"/>
    <trip id="267" depart="801.00" from="115655777#0" to="113752030#1"/>
    <trip id="268" depart="804.00" from="1032031706#5" to="156421310#1"/>
    <trip id="269" depart="807.00" from="-159370055#2" to="189921783#1"/>
    <trip id="270" depart="810.00" from="159841042#3" to="-115655778#1"/>
    <trip id="271" depart="813.00" from="189931954#2" to="-158140415#4"/>
    <trip id="272" depart="816.00" from="113752027#0" to="116038036#4"/>
    <trip id="273" depart="819.00" from="-190292792#4" to="-113752054#7"/>
    <trip id="274" depart="822.00" from="189921794#3" to="-116232198"/>
    <trip id="275" depart="825.00" from="-157916975#0" to="158712046#4"/>
    <trip id="276" depart="828.00" from="-189931985#0" to="189931926#2"/>
    <trip id="277" depart="831.00" from="154880925#1" to="-159370048#1"/>
    <trip id="278" depart="834.00" from="-113751995#5" to="207405246#5"/>
    <trip id="279" depart="837.00" from="-115655796#1" to="154887821#0"/>
    <trip id="280" depart="840.00" from="113752057#5" to="158140415#4"/>
    <trip id="281" depart="843.00" from="153580896#0" to="116232201#2"/>
    <trip id="282" depart="846.00" from="113752060#2" to="158412884#4"/>
    <trip id="283" depart="849.00" from="-115771907#1" to="-156421330#1"/>
    <trip id="284" depart="852.00" from="153580898#0" to="-162339437#0"/>
    <trip id="285" depart="855.00" from="115879817#1" to="113751995#0"/>
    <trip id="286" depart="858.00" from="115654046#7" to="-339956364#1"/>
    <trip id="287" depart="861.00" from="158140395#2" to="-189923093#2"/>
    <trip id="288" depart="864.00" from="-158410389#3" to="-115879806"/>
    <trip id="289" depart="867.00" from="-1226444743" to="-115879802#0"/>
    <trip id="290" depart="870.00" from="115655768#0" to="158141282#1"/>
    <trip id="291" depart="873.00" from="-1218445216" to="-156421310#0"/>
    <trip id="292" depart="876.00" from="113752057#24" to="154903172#0"/>
    <trip id="293" depart="879.00" from="47693485#0" to="1148137258"/>
    <trip id="294" depart="882.00" from="-159838771#1" to="-115771907#1"/>
    <trip id="295" depart="885.00" from="-1240420604" to="-157916981#3"/>
    <trip id="296" depart="888.00" from="-1178023859" to="-113752010#6"/>
    <trip id="297" depart="891.00" from="115655762#3" to="-159370046#0"/>
    <trip id="298" depart="894.00" from="47691619#2" to="115655780#2"/>
    <trip id="299" depart="897.00" from="153686900" to="-115879817#1"/>
    <trip id="300" depart="900.00" from="189924441#1" to="113752054#14"/>
    <trip id="301" depart="903.00" from="113752036" to="-739714364#0"/>
    <trip id="302" depart="906.00" from="-1218173119" to="-113752072#12"/>
    <trip id="303" depart="909.00" from="191061612#0" to="113752010#11"/>
    <trip id="304" depart="912.00" from="159838770" to="-190383367#4"/>
    <trip id="305" depart="915.00" from="-115655762#2" to="116064835#1"/>
    <trip id="306" depart="918.00" from="-113752072#14" to="-116038036#6"/>
    <trip id="307" depart="921.00" from="115771922" to="-159841043#1"/>
    <trip id="308" depart="924.00" from="705677600#0" to="-115879794#1"/>
    <trip id="309" depart="927.00" from="158410385#0" to="116038028#8"/>
    <trip id="310" depart="930.00" from="158712046#0" to="-157916977#1"/>
    <trip id="311" depart="933.00" from="115610249#9" to="1032031706#11"/>
    <trip id="312" depart="936.00" from="1092383453#0" to="189923084#3"/>
    <trip id="313" depart="939.00" from="52151971#6" to="-160554113#0"/>
    <trip id="314" depart="942.00" from="116064819#8" to="116038036#2"/>
    <trip id="315" depart="945.00" from="157920901#4" to="207405246#3"/>
    <trip id="316" depart="948.00" from="1226439301#2" to="-116064816#0"/>
    <trip id="317" depart="951.00" from="-116232204" to="-115654046#2"/>
    <trip id="318" depart="954.00" from="-1065785672" to="1032031706#11"/>
    <trip id="319" depart="957.00" from="115880828#0" to="-159803035"/>
    <trip id="320" depart="960.00" from="-158140415#5" to="154880926#1"/>
    <trip id="321" depart="963.00" from="1452306070" to="190292792#0"/>
    <trip id="322" depart="966.00" from="158424329#1" to="116064819#7"/>
    <trip id="323" depart="969.00" from="1226439301#4" to="190383397#6"/>
    <trip id="324" depart="972.00" from="-995157453" to="115654046#9"/>
    <trip id="325" depart="975.00" from="1178023855#1" to="190276990#1"/>
    <trip id="326" depart="978.00" from="159841038#0" to="-115652872"/>
    <trip id="327" depart="981.00" from="-116231664#1" to="-162339446#1"/>
    <trip id="328" depart="984.00" from="158140413#0" to="115771909#8"/>
    <trip id="329" depart="987.00" from="-159841040#1" to="-115879815#2"/>
    <trip id="330" depart="990.00" from="192446096" to="113752057#18"/>
    <trip id="331" depart="993.00" from="113752064#6" to="-115655764#0"/>
    <trip id="332" depart="996.00" from="-113752057#3" to="-47693485#1"/>
    <trip id="333" depart="999.00" from="-189924435" to="-158410384#0"/>
    <trip id="334" depart="1002.00" from="-115655825#2" to="361033191#1"/>
    <trip id="335" depart="1005.00" from="162339446#1" to="115771928#0"/>
    <trip id="336" depart="1008.00" from="207405246#4" to="995157453"/>
    <trip id="337" depart="1011.00" from="1309793511#2" to="-158412881#2"/>
    <trip id="338" depart="1014.00" from="-113752057#31" to="158140414#3"/>
    <trip id="339" depart="1017.00" from="113752038#1" to="1178023855#2"/>
    <trip id="340" depart="1020.00" from="190277024" to="-116231672#1"/>
    <trip id="341" depart="1023.00" from="115879830" to="116065387#6"/>
    <trip id="342" depart="1026.00" from="113752060#4" to="-115655796#0"/>
    <trip id="343" depart="1029.00" from="-190272849" to="-189923103"/>
    <trip id="344" depart="1032.00" from="1307641452" to="189921794#7"/>
    <trip id="345" depart="1035.00" from="-159841040#1" to="204165728#5"/>
    <trip id="346" depart="1038.00" from="159802681#3" to="115655777#1"/>
    <trip id="347" depart="1041.00" from="-189924436#1" to="47690206#3"/>
    <trip id="348" depart="1044.00" from="-26774684#2" to="113752065#1"/>
    <trip id="349" depart="1047.00" from="52151690#2" to="1192581695"/>
    <trip id="350" depart="1050.00" from="115655780#3" to="-192447881"/>
    <trip id="351" depart="1053.00" from="-1226439301#0" to="-190272859#0"/>
    <trip id="352" depart="1056.00" from="158140416#4" to="116064819#8"/>
    <trip id="353" depart="1059.00" from="158144863" to="-1226444743"/>
    <trip id="354" depart="1062.00" from="115655812#0" to="190292797#1"/>
    <trip id="355" depart="1065.00" from="1032036239#0" to="153580922"/>
    <trip id="356" depart="1068.00" from="-115879835#1" to="47693484#1"/>
    <trip id="357" depart="1071.00" from="116038042#0" to="-158140413#1"/>
    <trip id="358" depart="1074.00" from="-116065374" to="115655777#3"/>
    <trip id="359" depart="1077.00" from="115655825#1" to="-115655804#3"/>
    <trip id="360" depart="1080.00" from="689588144" to="190277004#2"/>
    <trip id="361" depart="1083.00" from="113752010#6" to="-115879793"/>
    <trip id="362" depart="1086.00" from="159841043#2" to="113752057#12"/>
    <trip id="363" depart="1089.00" from="154887821#1" to="113752060#0"/>
    <trip id="364" depart="1092.00" from="-159802681#2" to="159841042#1"/>
    <trip id="365" depart="1095.00" from="47696291#0" to="-158140415#4"/>
    <trip id="366" depart="1098.00" from="115655824" to="-190277007#2"/>
    <trip id="367" depart="1101.00" from="190292786#2" to="113752057#8"/>
    <trip id="368" depart="1104.00" from="189931947#1" to="189923093#3"/>
    <trip id="369" depart="1107.00" from="-159802683#0" to="158412881#0"/>
    <trip id="370" depart="1110.00" from="-47693487#3" to="191009004"/>
    <trip id="371" depart="1113.00" from="1148150433#1" to="159802682#3"/>
    <trip id="372" depart="1116.00" from="-159838771#1" to="-159841038#0"/>
    <trip id="373" depart="1119.00" from="115879835#3" to="986466423"/>
    <trip id="374" depart="1122.00" from="113752060#0" to="-116038036#4"/>
    <trip id="375" depart="1125.00" from="115655777#1" to="-189931918#2"/>
    <trip id="376" depart="1128.00" from="115655825#0" to="115654046#7"/>
    <trip id="377" depart="1131.00" from="113751995#0" to="-189921794#0"/>
    <trip id="378" depart="1134.00" from="-1226439301#2" to="153580898#3"/>
    <trip id="379" depart="1137.00" from="115773499#0" to="-158140391#2"/>
    <trip id="380" depart="1140.00" from="158410391#6" to="-113752060#4"/>
    <trip id="381" depart="1143.00" from="158140392" to="154880925#1"/>
    <trip id="382" depart="1146.00" from="159802680#0" to="-190277021#2"/>
    <trip id="383" depart="1149.00" from="1226443319" to="159802683#0"/>
    <trip id="384" depart="1152.00" from="47696291#1" to="113752054#6"/>
    <trip id="385" depart="1155.00" from="-113752057#22" to="113752057#22"/>
    <trip id="386" depart="1158.00" from="115880793#0" to="189924436#4"/>
    <trip id="387" depart="1161.00" from="189931918#2" to="-689588144"/>
    <trip id="388" depart="1164.00" from="115652876" to="1032036239#3"/>
    <trip id="389" depart="1167.00" from="154991874#0" to="-191033301#0"/>
    <trip id="390" depart="1170.00" from="1201617858" to="-116038044#3"/>
    <trip id="391" depart="1173.00" from="113752036" to="47690206#1"/>
    <trip id="392" depart="1176.00" from="-189931954#1" to="1452306071"/>
    <trip id="393" depart="1179.00" from="1178023859" to="189921783#1"/>
    <trip id="394" depart="1182.00" from="189921794#6" to="189923084#1"/>
    <trip id="395" depart="1185.00" from="-190292792#6" to="-189921781#0"/>
    <trip id="396" depart="1188.00" from="154887840#3" to="158140416#1"/>
    <trip id="397" depart="1191.00" from="189924683#2" to="-113752057#23"/>
    <trip id="398" depart="1194.00" from="-115654046#11" to="116064840"/>
    <trip id="399" depart="1197.00" from="190292780#2" to="771854650"/>
    <trip id="400" depart="1200.00" from="158140407#0" to="-47693487#1"/>
    <trip id="401" depart="1203.00" from="-115771911" to="116065387#3"/>
    <trip id="402" depart="1206.00" from="189924683#2" to="1019044735#2"/>
    <trip id="403" depart="1209.00" from="153581833" to="190276976#1"/>